simulator lang=spectre
include "pmos1.scs"
